*SPEF "ieee 1481-1999"
*DESIGN "inverter"
*DATE "11:11:11 Fri 11 11, 1111"
*VENDOR "OpenRCX"
*PROGRAM "Parallel Extraction"
*VERSION "1.0"
*DESIGN_FLOW "NAME_SCOPE LOCAL" "PIN_CAP NONE"
*DIVIDER /
*DELIMITER :
*BUS_DELIMITER []
*T_UNIT 1 NS
*C_UNIT 1 PF
*R_UNIT 1 OHM
*L_UNIT 1 HENRY

*NAME_MAP
*3 in
*4 out
*5 net1
*6 net2
*7 FILLER_0_0_21
*8 FILLER_0_0_27
*9 FILLER_0_0_29
*10 FILLER_0_0_41
*11 FILLER_0_0_47
*12 FILLER_0_0_9
*13 FILLER_0_10_15
*14 FILLER_0_10_27
*15 FILLER_0_10_29
*16 FILLER_0_10_3
*17 FILLER_0_10_41
*18 FILLER_0_10_47
*19 FILLER_0_11_15
*20 FILLER_0_11_27
*21 FILLER_0_11_3
*22 FILLER_0_11_39
*23 FILLER_0_11_47
*24 FILLER_0_12_15
*25 FILLER_0_12_27
*26 FILLER_0_12_29
*27 FILLER_0_12_3
*28 FILLER_0_12_41
*29 FILLER_0_1_15
*30 FILLER_0_1_27
*31 FILLER_0_1_3
*32 FILLER_0_1_33
*33 FILLER_0_1_37
*34 FILLER_0_1_45
*35 FILLER_0_2_15
*36 FILLER_0_2_27
*37 FILLER_0_2_29
*38 FILLER_0_2_3
*39 FILLER_0_2_41
*40 FILLER_0_2_47
*41 FILLER_0_3_15
*42 FILLER_0_3_27
*43 FILLER_0_3_3
*44 FILLER_0_3_39
*45 FILLER_0_3_47
*46 FILLER_0_4_15
*47 FILLER_0_4_27
*48 FILLER_0_4_29
*49 FILLER_0_4_3
*50 FILLER_0_4_41
*51 FILLER_0_4_47
*52 FILLER_0_5_15
*53 FILLER_0_5_27
*54 FILLER_0_5_3
*55 FILLER_0_5_39
*56 FILLER_0_5_47
*57 FILLER_0_6_15
*58 FILLER_0_6_27
*59 FILLER_0_6_29
*60 FILLER_0_6_3
*61 FILLER_0_6_41
*62 FILLER_0_6_47
*63 FILLER_0_7_15
*64 FILLER_0_7_27
*65 FILLER_0_7_3
*66 FILLER_0_7_39
*67 FILLER_0_7_47
*68 FILLER_0_8_15
*69 FILLER_0_8_27
*70 FILLER_0_8_29
*71 FILLER_0_8_3
*72 FILLER_0_8_41
*73 FILLER_0_8_47
*74 FILLER_0_9_15
*75 FILLER_0_9_27
*76 FILLER_0_9_3
*77 FILLER_0_9_39
*78 FILLER_0_9_47
*79 PHY_0
*80 PHY_1
*81 PHY_10
*82 PHY_11
*83 PHY_12
*84 PHY_13
*85 PHY_14
*86 PHY_15
*87 PHY_16
*88 PHY_17
*89 PHY_18
*90 PHY_19
*91 PHY_2
*92 PHY_20
*93 PHY_21
*94 PHY_22
*95 PHY_23
*96 PHY_24
*97 PHY_25
*98 PHY_3
*99 PHY_4
*100 PHY_5
*101 PHY_6
*102 PHY_7
*103 PHY_8
*104 PHY_9
*105 TAP_26
*106 TAP_27
*107 TAP_28
*108 TAP_29
*109 TAP_30
*110 TAP_31
*111 TAP_32
*112 _0_
*113 input1
*114 output2

*PORTS
in I
out O

*D_NET *3 0.00129226
*CONN
*P in I
*I *113:A I *D sky130_fd_sc_hd__buf_1
*CAP
1 in 0.000646132
2 *113:A 0.000646132
*RES
1 in *113:A 26.2464 
*END

*D_NET *4 0.00142033
*CONN
*P out O
*I *114:X O *D sky130_fd_sc_hd__clkbuf_4
*CAP
1 out 0.000710163
2 *114:X 0.000710163
*RES
1 *114:X out 27.2821 
*END

*D_NET *5 0.00330316
*CONN
*I *112:A I *D sky130_fd_sc_hd__inv_2
*I *113:X O *D sky130_fd_sc_hd__buf_1
*CAP
1 *112:A 0
2 *113:X 0.00165158
3 *5:14 0.00165158
*RES
1 *113:X *5:14 48.175 
2 *5:14 *112:A 9.3 
*END

*D_NET *6 0.00164638
*CONN
*I *114:A I *D sky130_fd_sc_hd__clkbuf_4
*I *112:Y O *D sky130_fd_sc_hd__inv_2
*CAP
1 *114:A 0.00082319
2 *112:Y 0.00082319
*RES
1 *112:Y *114:A 41.1714 
*END
