*SPEF "ieee 1481-1999"
*DESIGN "inverter"
*DATE "11:11:11 Fri 11 11, 1111"
*VENDOR "OpenRCX"
*PROGRAM "Parallel Extraction"
*VERSION "1.0"
*DESIGN_FLOW "NAME_SCOPE LOCAL" "PIN_CAP NONE"
*DIVIDER /
*DELIMITER :
*BUS_DELIMITER []
*T_UNIT 1 NS
*C_UNIT 1 PF
*R_UNIT 1 OHM
*L_UNIT 1 HENRY

*NAME_MAP
*3 in
*4 out
*5 net1
*6 net2
*7 FILLER_0_0_109
*8 FILLER_0_0_113
*9 FILLER_0_0_125
*10 FILLER_0_0_137
*11 FILLER_0_0_141
*12 FILLER_0_0_153
*13 FILLER_0_0_165
*14 FILLER_0_0_169
*15 FILLER_0_0_181
*16 FILLER_0_0_193
*17 FILLER_0_0_197
*18 FILLER_0_0_209
*19 FILLER_0_0_21
*20 FILLER_0_0_221
*21 FILLER_0_0_225
*22 FILLER_0_0_237
*23 FILLER_0_0_249
*24 FILLER_0_0_253
*25 FILLER_0_0_265
*26 FILLER_0_0_27
*27 FILLER_0_0_277
*28 FILLER_0_0_281
*29 FILLER_0_0_29
*30 FILLER_0_0_293
*31 FILLER_0_0_305
*32 FILLER_0_0_309
*33 FILLER_0_0_321
*34 FILLER_0_0_333
*35 FILLER_0_0_337
*36 FILLER_0_0_349
*37 FILLER_0_0_361
*38 FILLER_0_0_365
*39 FILLER_0_0_377
*40 FILLER_0_0_389
*41 FILLER_0_0_393
*42 FILLER_0_0_405
*43 FILLER_0_0_41
*44 FILLER_0_0_53
*45 FILLER_0_0_57
*46 FILLER_0_0_69
*47 FILLER_0_0_81
*48 FILLER_0_0_85
*49 FILLER_0_0_9
*50 FILLER_0_0_97
*51 FILLER_0_10_109
*52 FILLER_0_10_121
*53 FILLER_0_10_133
*54 FILLER_0_10_139
*55 FILLER_0_10_141
*56 FILLER_0_10_15
*57 FILLER_0_10_153
*58 FILLER_0_10_165
*59 FILLER_0_10_177
*60 FILLER_0_10_189
*61 FILLER_0_10_195
*62 FILLER_0_10_197
*63 FILLER_0_10_209
*64 FILLER_0_10_221
*65 FILLER_0_10_233
*66 FILLER_0_10_245
*67 FILLER_0_10_251
*68 FILLER_0_10_253
*69 FILLER_0_10_265
*70 FILLER_0_10_27
*71 FILLER_0_10_277
*72 FILLER_0_10_289
*73 FILLER_0_10_29
*74 FILLER_0_10_3
*75 FILLER_0_10_301
*76 FILLER_0_10_307
*77 FILLER_0_10_309
*78 FILLER_0_10_321
*79 FILLER_0_10_333
*80 FILLER_0_10_345
*81 FILLER_0_10_357
*82 FILLER_0_10_363
*83 FILLER_0_10_365
*84 FILLER_0_10_377
*85 FILLER_0_10_389
*86 FILLER_0_10_401
*87 FILLER_0_10_41
*88 FILLER_0_10_53
*89 FILLER_0_10_65
*90 FILLER_0_10_77
*91 FILLER_0_10_83
*92 FILLER_0_10_85
*93 FILLER_0_10_97
*94 FILLER_0_11_105
*95 FILLER_0_11_111
*96 FILLER_0_11_113
*97 FILLER_0_11_125
*98 FILLER_0_11_137
*99 FILLER_0_11_149
*100 FILLER_0_11_15
*101 FILLER_0_11_161
*102 FILLER_0_11_167
*103 FILLER_0_11_169
*104 FILLER_0_11_181
*105 FILLER_0_11_193
*106 FILLER_0_11_205
*107 FILLER_0_11_217
*108 FILLER_0_11_223
*109 FILLER_0_11_225
*110 FILLER_0_11_237
*111 FILLER_0_11_249
*112 FILLER_0_11_261
*113 FILLER_0_11_27
*114 FILLER_0_11_273
*115 FILLER_0_11_279
*116 FILLER_0_11_281
*117 FILLER_0_11_293
*118 FILLER_0_11_3
*119 FILLER_0_11_305
*120 FILLER_0_11_317
*121 FILLER_0_11_329
*122 FILLER_0_11_335
*123 FILLER_0_11_337
*124 FILLER_0_11_349
*125 FILLER_0_11_361
*126 FILLER_0_11_373
*127 FILLER_0_11_385
*128 FILLER_0_11_39
*129 FILLER_0_11_391
*130 FILLER_0_11_393
*131 FILLER_0_11_405
*132 FILLER_0_11_51
*133 FILLER_0_11_55
*134 FILLER_0_11_57
*135 FILLER_0_11_69
*136 FILLER_0_11_81
*137 FILLER_0_11_93
*138 FILLER_0_12_109
*139 FILLER_0_12_121
*140 FILLER_0_12_133
*141 FILLER_0_12_139
*142 FILLER_0_12_141
*143 FILLER_0_12_15
*144 FILLER_0_12_153
*145 FILLER_0_12_165
*146 FILLER_0_12_177
*147 FILLER_0_12_189
*148 FILLER_0_12_195
*149 FILLER_0_12_197
*150 FILLER_0_12_209
*151 FILLER_0_12_221
*152 FILLER_0_12_233
*153 FILLER_0_12_245
*154 FILLER_0_12_251
*155 FILLER_0_12_253
*156 FILLER_0_12_265
*157 FILLER_0_12_27
*158 FILLER_0_12_277
*159 FILLER_0_12_289
*160 FILLER_0_12_29
*161 FILLER_0_12_3
*162 FILLER_0_12_301
*163 FILLER_0_12_307
*164 FILLER_0_12_309
*165 FILLER_0_12_321
*166 FILLER_0_12_333
*167 FILLER_0_12_345
*168 FILLER_0_12_357
*169 FILLER_0_12_363
*170 FILLER_0_12_365
*171 FILLER_0_12_377
*172 FILLER_0_12_389
*173 FILLER_0_12_401
*174 FILLER_0_12_41
*175 FILLER_0_12_53
*176 FILLER_0_12_65
*177 FILLER_0_12_77
*178 FILLER_0_12_83
*179 FILLER_0_12_85
*180 FILLER_0_12_97
*181 FILLER_0_13_105
*182 FILLER_0_13_111
*183 FILLER_0_13_113
*184 FILLER_0_13_125
*185 FILLER_0_13_137
*186 FILLER_0_13_149
*187 FILLER_0_13_15
*188 FILLER_0_13_161
*189 FILLER_0_13_167
*190 FILLER_0_13_169
*191 FILLER_0_13_181
*192 FILLER_0_13_193
*193 FILLER_0_13_205
*194 FILLER_0_13_217
*195 FILLER_0_13_223
*196 FILLER_0_13_225
*197 FILLER_0_13_237
*198 FILLER_0_13_249
*199 FILLER_0_13_261
*200 FILLER_0_13_27
*201 FILLER_0_13_273
*202 FILLER_0_13_279
*203 FILLER_0_13_281
*204 FILLER_0_13_293
*205 FILLER_0_13_3
*206 FILLER_0_13_305
*207 FILLER_0_13_317
*208 FILLER_0_13_329
*209 FILLER_0_13_335
*210 FILLER_0_13_337
*211 FILLER_0_13_349
*212 FILLER_0_13_361
*213 FILLER_0_13_373
*214 FILLER_0_13_385
*215 FILLER_0_13_39
*216 FILLER_0_13_391
*217 FILLER_0_13_393
*218 FILLER_0_13_405
*219 FILLER_0_13_51
*220 FILLER_0_13_55
*221 FILLER_0_13_57
*222 FILLER_0_13_69
*223 FILLER_0_13_81
*224 FILLER_0_13_93
*225 FILLER_0_14_109
*226 FILLER_0_14_121
*227 FILLER_0_14_133
*228 FILLER_0_14_139
*229 FILLER_0_14_141
*230 FILLER_0_14_15
*231 FILLER_0_14_153
*232 FILLER_0_14_165
*233 FILLER_0_14_177
*234 FILLER_0_14_189
*235 FILLER_0_14_195
*236 FILLER_0_14_197
*237 FILLER_0_14_209
*238 FILLER_0_14_221
*239 FILLER_0_14_233
*240 FILLER_0_14_245
*241 FILLER_0_14_251
*242 FILLER_0_14_253
*243 FILLER_0_14_265
*244 FILLER_0_14_27
*245 FILLER_0_14_277
*246 FILLER_0_14_289
*247 FILLER_0_14_29
*248 FILLER_0_14_3
*249 FILLER_0_14_301
*250 FILLER_0_14_307
*251 FILLER_0_14_309
*252 FILLER_0_14_321
*253 FILLER_0_14_333
*254 FILLER_0_14_345
*255 FILLER_0_14_357
*256 FILLER_0_14_363
*257 FILLER_0_14_365
*258 FILLER_0_14_377
*259 FILLER_0_14_389
*260 FILLER_0_14_401
*261 FILLER_0_14_41
*262 FILLER_0_14_53
*263 FILLER_0_14_65
*264 FILLER_0_14_77
*265 FILLER_0_14_83
*266 FILLER_0_14_85
*267 FILLER_0_14_97
*268 FILLER_0_15_105
*269 FILLER_0_15_111
*270 FILLER_0_15_113
*271 FILLER_0_15_125
*272 FILLER_0_15_137
*273 FILLER_0_15_149
*274 FILLER_0_15_15
*275 FILLER_0_15_161
*276 FILLER_0_15_167
*277 FILLER_0_15_169
*278 FILLER_0_15_181
*279 FILLER_0_15_193
*280 FILLER_0_15_205
*281 FILLER_0_15_217
*282 FILLER_0_15_223
*283 FILLER_0_15_225
*284 FILLER_0_15_237
*285 FILLER_0_15_249
*286 FILLER_0_15_261
*287 FILLER_0_15_27
*288 FILLER_0_15_273
*289 FILLER_0_15_279
*290 FILLER_0_15_281
*291 FILLER_0_15_293
*292 FILLER_0_15_3
*293 FILLER_0_15_305
*294 FILLER_0_15_317
*295 FILLER_0_15_329
*296 FILLER_0_15_335
*297 FILLER_0_15_337
*298 FILLER_0_15_349
*299 FILLER_0_15_361
*300 FILLER_0_15_373
*301 FILLER_0_15_385
*302 FILLER_0_15_39
*303 FILLER_0_15_391
*304 FILLER_0_15_393
*305 FILLER_0_15_405
*306 FILLER_0_15_51
*307 FILLER_0_15_55
*308 FILLER_0_15_57
*309 FILLER_0_15_69
*310 FILLER_0_15_81
*311 FILLER_0_15_93
*312 FILLER_0_16_109
*313 FILLER_0_16_121
*314 FILLER_0_16_133
*315 FILLER_0_16_139
*316 FILLER_0_16_141
*317 FILLER_0_16_15
*318 FILLER_0_16_153
*319 FILLER_0_16_165
*320 FILLER_0_16_177
*321 FILLER_0_16_189
*322 FILLER_0_16_195
*323 FILLER_0_16_197
*324 FILLER_0_16_209
*325 FILLER_0_16_221
*326 FILLER_0_16_233
*327 FILLER_0_16_245
*328 FILLER_0_16_251
*329 FILLER_0_16_253
*330 FILLER_0_16_265
*331 FILLER_0_16_27
*332 FILLER_0_16_277
*333 FILLER_0_16_289
*334 FILLER_0_16_29
*335 FILLER_0_16_3
*336 FILLER_0_16_301
*337 FILLER_0_16_307
*338 FILLER_0_16_309
*339 FILLER_0_16_321
*340 FILLER_0_16_333
*341 FILLER_0_16_345
*342 FILLER_0_16_357
*343 FILLER_0_16_363
*344 FILLER_0_16_365
*345 FILLER_0_16_377
*346 FILLER_0_16_389
*347 FILLER_0_16_401
*348 FILLER_0_16_41
*349 FILLER_0_16_53
*350 FILLER_0_16_65
*351 FILLER_0_16_77
*352 FILLER_0_16_83
*353 FILLER_0_16_85
*354 FILLER_0_16_97
*355 FILLER_0_17_105
*356 FILLER_0_17_111
*357 FILLER_0_17_113
*358 FILLER_0_17_125
*359 FILLER_0_17_137
*360 FILLER_0_17_149
*361 FILLER_0_17_15
*362 FILLER_0_17_161
*363 FILLER_0_17_167
*364 FILLER_0_17_169
*365 FILLER_0_17_181
*366 FILLER_0_17_193
*367 FILLER_0_17_205
*368 FILLER_0_17_217
*369 FILLER_0_17_223
*370 FILLER_0_17_225
*371 FILLER_0_17_237
*372 FILLER_0_17_249
*373 FILLER_0_17_261
*374 FILLER_0_17_27
*375 FILLER_0_17_273
*376 FILLER_0_17_279
*377 FILLER_0_17_281
*378 FILLER_0_17_293
*379 FILLER_0_17_3
*380 FILLER_0_17_305
*381 FILLER_0_17_317
*382 FILLER_0_17_329
*383 FILLER_0_17_335
*384 FILLER_0_17_337
*385 FILLER_0_17_349
*386 FILLER_0_17_361
*387 FILLER_0_17_373
*388 FILLER_0_17_385
*389 FILLER_0_17_39
*390 FILLER_0_17_391
*391 FILLER_0_17_393
*392 FILLER_0_17_405
*393 FILLER_0_17_51
*394 FILLER_0_17_55
*395 FILLER_0_17_57
*396 FILLER_0_17_69
*397 FILLER_0_17_81
*398 FILLER_0_17_93
*399 FILLER_0_18_109
*400 FILLER_0_18_121
*401 FILLER_0_18_133
*402 FILLER_0_18_139
*403 FILLER_0_18_141
*404 FILLER_0_18_15
*405 FILLER_0_18_153
*406 FILLER_0_18_165
*407 FILLER_0_18_177
*408 FILLER_0_18_189
*409 FILLER_0_18_195
*410 FILLER_0_18_197
*411 FILLER_0_18_209
*412 FILLER_0_18_221
*413 FILLER_0_18_233
*414 FILLER_0_18_245
*415 FILLER_0_18_251
*416 FILLER_0_18_253
*417 FILLER_0_18_265
*418 FILLER_0_18_27
*419 FILLER_0_18_277
*420 FILLER_0_18_289
*421 FILLER_0_18_29
*422 FILLER_0_18_3
*423 FILLER_0_18_301
*424 FILLER_0_18_307
*425 FILLER_0_18_309
*426 FILLER_0_18_321
*427 FILLER_0_18_333
*428 FILLER_0_18_345
*429 FILLER_0_18_357
*430 FILLER_0_18_363
*431 FILLER_0_18_365
*432 FILLER_0_18_377
*433 FILLER_0_18_389
*434 FILLER_0_18_401
*435 FILLER_0_18_41
*436 FILLER_0_18_53
*437 FILLER_0_18_65
*438 FILLER_0_18_77
*439 FILLER_0_18_83
*440 FILLER_0_18_85
*441 FILLER_0_18_97
*442 FILLER_0_19_105
*443 FILLER_0_19_111
*444 FILLER_0_19_113
*445 FILLER_0_19_125
*446 FILLER_0_19_137
*447 FILLER_0_19_149
*448 FILLER_0_19_15
*449 FILLER_0_19_161
*450 FILLER_0_19_167
*451 FILLER_0_19_169
*452 FILLER_0_19_181
*453 FILLER_0_19_193
*454 FILLER_0_19_205
*455 FILLER_0_19_217
*456 FILLER_0_19_223
*457 FILLER_0_19_225
*458 FILLER_0_19_237
*459 FILLER_0_19_249
*460 FILLER_0_19_261
*461 FILLER_0_19_27
*462 FILLER_0_19_273
*463 FILLER_0_19_279
*464 FILLER_0_19_281
*465 FILLER_0_19_293
*466 FILLER_0_19_3
*467 FILLER_0_19_305
*468 FILLER_0_19_317
*469 FILLER_0_19_329
*470 FILLER_0_19_335
*471 FILLER_0_19_337
*472 FILLER_0_19_349
*473 FILLER_0_19_361
*474 FILLER_0_19_373
*475 FILLER_0_19_385
*476 FILLER_0_19_39
*477 FILLER_0_19_391
*478 FILLER_0_19_393
*479 FILLER_0_19_405
*480 FILLER_0_19_51
*481 FILLER_0_19_55
*482 FILLER_0_19_57
*483 FILLER_0_19_69
*484 FILLER_0_19_81
*485 FILLER_0_19_93
*486 FILLER_0_1_105
*487 FILLER_0_1_111
*488 FILLER_0_1_113
*489 FILLER_0_1_125
*490 FILLER_0_1_137
*491 FILLER_0_1_149
*492 FILLER_0_1_15
*493 FILLER_0_1_161
*494 FILLER_0_1_167
*495 FILLER_0_1_169
*496 FILLER_0_1_181
*497 FILLER_0_1_193
*498 FILLER_0_1_205
*499 FILLER_0_1_217
*500 FILLER_0_1_223
*501 FILLER_0_1_225
*502 FILLER_0_1_237
*503 FILLER_0_1_249
*504 FILLER_0_1_261
*505 FILLER_0_1_27
*506 FILLER_0_1_273
*507 FILLER_0_1_279
*508 FILLER_0_1_281
*509 FILLER_0_1_293
*510 FILLER_0_1_3
*511 FILLER_0_1_305
*512 FILLER_0_1_317
*513 FILLER_0_1_329
*514 FILLER_0_1_335
*515 FILLER_0_1_337
*516 FILLER_0_1_349
*517 FILLER_0_1_361
*518 FILLER_0_1_373
*519 FILLER_0_1_385
*520 FILLER_0_1_39
*521 FILLER_0_1_391
*522 FILLER_0_1_393
*523 FILLER_0_1_405
*524 FILLER_0_1_51
*525 FILLER_0_1_55
*526 FILLER_0_1_57
*527 FILLER_0_1_69
*528 FILLER_0_1_81
*529 FILLER_0_1_93
*530 FILLER_0_20_109
*531 FILLER_0_20_121
*532 FILLER_0_20_133
*533 FILLER_0_20_139
*534 FILLER_0_20_141
*535 FILLER_0_20_15
*536 FILLER_0_20_153
*537 FILLER_0_20_165
*538 FILLER_0_20_177
*539 FILLER_0_20_189
*540 FILLER_0_20_195
*541 FILLER_0_20_197
*542 FILLER_0_20_209
*543 FILLER_0_20_221
*544 FILLER_0_20_233
*545 FILLER_0_20_245
*546 FILLER_0_20_251
*547 FILLER_0_20_253
*548 FILLER_0_20_265
*549 FILLER_0_20_27
*550 FILLER_0_20_277
*551 FILLER_0_20_289
*552 FILLER_0_20_29
*553 FILLER_0_20_3
*554 FILLER_0_20_301
*555 FILLER_0_20_307
*556 FILLER_0_20_309
*557 FILLER_0_20_321
*558 FILLER_0_20_333
*559 FILLER_0_20_345
*560 FILLER_0_20_357
*561 FILLER_0_20_363
*562 FILLER_0_20_365
*563 FILLER_0_20_377
*564 FILLER_0_20_389
*565 FILLER_0_20_401
*566 FILLER_0_20_41
*567 FILLER_0_20_53
*568 FILLER_0_20_65
*569 FILLER_0_20_77
*570 FILLER_0_20_83
*571 FILLER_0_20_85
*572 FILLER_0_20_97
*573 FILLER_0_21_105
*574 FILLER_0_21_111
*575 FILLER_0_21_113
*576 FILLER_0_21_125
*577 FILLER_0_21_137
*578 FILLER_0_21_149
*579 FILLER_0_21_15
*580 FILLER_0_21_161
*581 FILLER_0_21_167
*582 FILLER_0_21_169
*583 FILLER_0_21_181
*584 FILLER_0_21_193
*585 FILLER_0_21_205
*586 FILLER_0_21_217
*587 FILLER_0_21_223
*588 FILLER_0_21_225
*589 FILLER_0_21_237
*590 FILLER_0_21_249
*591 FILLER_0_21_261
*592 FILLER_0_21_27
*593 FILLER_0_21_273
*594 FILLER_0_21_279
*595 FILLER_0_21_281
*596 FILLER_0_21_293
*597 FILLER_0_21_3
*598 FILLER_0_21_305
*599 FILLER_0_21_317
*600 FILLER_0_21_329
*601 FILLER_0_21_335
*602 FILLER_0_21_337
*603 FILLER_0_21_349
*604 FILLER_0_21_361
*605 FILLER_0_21_373
*606 FILLER_0_21_385
*607 FILLER_0_21_39
*608 FILLER_0_21_391
*609 FILLER_0_21_393
*610 FILLER_0_21_405
*611 FILLER_0_21_51
*612 FILLER_0_21_55
*613 FILLER_0_21_57
*614 FILLER_0_21_69
*615 FILLER_0_21_81
*616 FILLER_0_21_93
*617 FILLER_0_22_109
*618 FILLER_0_22_121
*619 FILLER_0_22_133
*620 FILLER_0_22_139
*621 FILLER_0_22_141
*622 FILLER_0_22_15
*623 FILLER_0_22_153
*624 FILLER_0_22_165
*625 FILLER_0_22_177
*626 FILLER_0_22_189
*627 FILLER_0_22_195
*628 FILLER_0_22_197
*629 FILLER_0_22_209
*630 FILLER_0_22_221
*631 FILLER_0_22_233
*632 FILLER_0_22_245
*633 FILLER_0_22_251
*634 FILLER_0_22_253
*635 FILLER_0_22_265
*636 FILLER_0_22_27
*637 FILLER_0_22_277
*638 FILLER_0_22_289
*639 FILLER_0_22_29
*640 FILLER_0_22_3
*641 FILLER_0_22_301
*642 FILLER_0_22_307
*643 FILLER_0_22_309
*644 FILLER_0_22_321
*645 FILLER_0_22_333
*646 FILLER_0_22_345
*647 FILLER_0_22_357
*648 FILLER_0_22_363
*649 FILLER_0_22_365
*650 FILLER_0_22_377
*651 FILLER_0_22_389
*652 FILLER_0_22_401
*653 FILLER_0_22_41
*654 FILLER_0_22_53
*655 FILLER_0_22_65
*656 FILLER_0_22_77
*657 FILLER_0_22_83
*658 FILLER_0_22_85
*659 FILLER_0_22_97
*660 FILLER_0_23_105
*661 FILLER_0_23_111
*662 FILLER_0_23_113
*663 FILLER_0_23_125
*664 FILLER_0_23_137
*665 FILLER_0_23_149
*666 FILLER_0_23_15
*667 FILLER_0_23_161
*668 FILLER_0_23_167
*669 FILLER_0_23_169
*670 FILLER_0_23_181
*671 FILLER_0_23_193
*672 FILLER_0_23_205
*673 FILLER_0_23_217
*674 FILLER_0_23_223
*675 FILLER_0_23_225
*676 FILLER_0_23_237
*677 FILLER_0_23_249
*678 FILLER_0_23_261
*679 FILLER_0_23_27
*680 FILLER_0_23_273
*681 FILLER_0_23_279
*682 FILLER_0_23_281
*683 FILLER_0_23_293
*684 FILLER_0_23_3
*685 FILLER_0_23_305
*686 FILLER_0_23_317
*687 FILLER_0_23_329
*688 FILLER_0_23_335
*689 FILLER_0_23_337
*690 FILLER_0_23_349
*691 FILLER_0_23_361
*692 FILLER_0_23_373
*693 FILLER_0_23_385
*694 FILLER_0_23_39
*695 FILLER_0_23_391
*696 FILLER_0_23_393
*697 FILLER_0_23_405
*698 FILLER_0_23_51
*699 FILLER_0_23_55
*700 FILLER_0_23_57
*701 FILLER_0_23_69
*702 FILLER_0_23_81
*703 FILLER_0_23_93
*704 FILLER_0_24_109
*705 FILLER_0_24_121
*706 FILLER_0_24_133
*707 FILLER_0_24_139
*708 FILLER_0_24_141
*709 FILLER_0_24_15
*710 FILLER_0_24_153
*711 FILLER_0_24_165
*712 FILLER_0_24_177
*713 FILLER_0_24_189
*714 FILLER_0_24_195
*715 FILLER_0_24_197
*716 FILLER_0_24_209
*717 FILLER_0_24_221
*718 FILLER_0_24_233
*719 FILLER_0_24_245
*720 FILLER_0_24_251
*721 FILLER_0_24_253
*722 FILLER_0_24_265
*723 FILLER_0_24_27
*724 FILLER_0_24_277
*725 FILLER_0_24_289
*726 FILLER_0_24_29
*727 FILLER_0_24_3
*728 FILLER_0_24_301
*729 FILLER_0_24_307
*730 FILLER_0_24_309
*731 FILLER_0_24_321
*732 FILLER_0_24_333
*733 FILLER_0_24_345
*734 FILLER_0_24_357
*735 FILLER_0_24_363
*736 FILLER_0_24_365
*737 FILLER_0_24_377
*738 FILLER_0_24_389
*739 FILLER_0_24_401
*740 FILLER_0_24_41
*741 FILLER_0_24_53
*742 FILLER_0_24_65
*743 FILLER_0_24_77
*744 FILLER_0_24_83
*745 FILLER_0_24_85
*746 FILLER_0_24_97
*747 FILLER_0_25_105
*748 FILLER_0_25_111
*749 FILLER_0_25_113
*750 FILLER_0_25_125
*751 FILLER_0_25_137
*752 FILLER_0_25_149
*753 FILLER_0_25_15
*754 FILLER_0_25_161
*755 FILLER_0_25_167
*756 FILLER_0_25_169
*757 FILLER_0_25_181
*758 FILLER_0_25_193
*759 FILLER_0_25_205
*760 FILLER_0_25_217
*761 FILLER_0_25_223
*762 FILLER_0_25_225
*763 FILLER_0_25_237
*764 FILLER_0_25_249
*765 FILLER_0_25_261
*766 FILLER_0_25_27
*767 FILLER_0_25_273
*768 FILLER_0_25_279
*769 FILLER_0_25_281
*770 FILLER_0_25_293
*771 FILLER_0_25_3
*772 FILLER_0_25_305
*773 FILLER_0_25_317
*774 FILLER_0_25_329
*775 FILLER_0_25_335
*776 FILLER_0_25_337
*777 FILLER_0_25_349
*778 FILLER_0_25_361
*779 FILLER_0_25_373
*780 FILLER_0_25_385
*781 FILLER_0_25_39
*782 FILLER_0_25_391
*783 FILLER_0_25_393
*784 FILLER_0_25_405
*785 FILLER_0_25_51
*786 FILLER_0_25_55
*787 FILLER_0_25_57
*788 FILLER_0_25_69
*789 FILLER_0_25_81
*790 FILLER_0_25_93
*791 FILLER_0_26_109
*792 FILLER_0_26_121
*793 FILLER_0_26_133
*794 FILLER_0_26_139
*795 FILLER_0_26_141
*796 FILLER_0_26_15
*797 FILLER_0_26_153
*798 FILLER_0_26_165
*799 FILLER_0_26_177
*800 FILLER_0_26_189
*801 FILLER_0_26_195
*802 FILLER_0_26_197
*803 FILLER_0_26_209
*804 FILLER_0_26_221
*805 FILLER_0_26_233
*806 FILLER_0_26_245
*807 FILLER_0_26_251
*808 FILLER_0_26_253
*809 FILLER_0_26_265
*810 FILLER_0_26_27
*811 FILLER_0_26_277
*812 FILLER_0_26_289
*813 FILLER_0_26_29
*814 FILLER_0_26_3
*815 FILLER_0_26_301
*816 FILLER_0_26_307
*817 FILLER_0_26_309
*818 FILLER_0_26_321
*819 FILLER_0_26_333
*820 FILLER_0_26_345
*821 FILLER_0_26_357
*822 FILLER_0_26_363
*823 FILLER_0_26_365
*824 FILLER_0_26_377
*825 FILLER_0_26_389
*826 FILLER_0_26_401
*827 FILLER_0_26_41
*828 FILLER_0_26_53
*829 FILLER_0_26_65
*830 FILLER_0_26_77
*831 FILLER_0_26_83
*832 FILLER_0_26_85
*833 FILLER_0_26_97
*834 FILLER_0_27_105
*835 FILLER_0_27_111
*836 FILLER_0_27_113
*837 FILLER_0_27_125
*838 FILLER_0_27_137
*839 FILLER_0_27_149
*840 FILLER_0_27_15
*841 FILLER_0_27_161
*842 FILLER_0_27_167
*843 FILLER_0_27_169
*844 FILLER_0_27_181
*845 FILLER_0_27_193
*846 FILLER_0_27_205
*847 FILLER_0_27_217
*848 FILLER_0_27_223
*849 FILLER_0_27_225
*850 FILLER_0_27_237
*851 FILLER_0_27_249
*852 FILLER_0_27_261
*853 FILLER_0_27_27
*854 FILLER_0_27_273
*855 FILLER_0_27_279
*856 FILLER_0_27_281
*857 FILLER_0_27_293
*858 FILLER_0_27_3
*859 FILLER_0_27_305
*860 FILLER_0_27_317
*861 FILLER_0_27_329
*862 FILLER_0_27_335
*863 FILLER_0_27_337
*864 FILLER_0_27_349
*865 FILLER_0_27_361
*866 FILLER_0_27_373
*867 FILLER_0_27_385
*868 FILLER_0_27_39
*869 FILLER_0_27_391
*870 FILLER_0_27_393
*871 FILLER_0_27_405
*872 FILLER_0_27_51
*873 FILLER_0_27_55
*874 FILLER_0_27_57
*875 FILLER_0_27_69
*876 FILLER_0_27_81
*877 FILLER_0_27_93
*878 FILLER_0_28_109
*879 FILLER_0_28_121
*880 FILLER_0_28_133
*881 FILLER_0_28_139
*882 FILLER_0_28_141
*883 FILLER_0_28_15
*884 FILLER_0_28_153
*885 FILLER_0_28_165
*886 FILLER_0_28_177
*887 FILLER_0_28_189
*888 FILLER_0_28_195
*889 FILLER_0_28_197
*890 FILLER_0_28_209
*891 FILLER_0_28_221
*892 FILLER_0_28_233
*893 FILLER_0_28_245
*894 FILLER_0_28_251
*895 FILLER_0_28_253
*896 FILLER_0_28_265
*897 FILLER_0_28_27
*898 FILLER_0_28_277
*899 FILLER_0_28_289
*900 FILLER_0_28_29
*901 FILLER_0_28_3
*902 FILLER_0_28_301
*903 FILLER_0_28_307
*904 FILLER_0_28_309
*905 FILLER_0_28_321
*906 FILLER_0_28_333
*907 FILLER_0_28_345
*908 FILLER_0_28_357
*909 FILLER_0_28_363
*910 FILLER_0_28_365
*911 FILLER_0_28_377
*912 FILLER_0_28_389
*913 FILLER_0_28_401
*914 FILLER_0_28_41
*915 FILLER_0_28_53
*916 FILLER_0_28_65
*917 FILLER_0_28_77
*918 FILLER_0_28_83
*919 FILLER_0_28_85
*920 FILLER_0_28_97
*921 FILLER_0_29_105
*922 FILLER_0_29_111
*923 FILLER_0_29_113
*924 FILLER_0_29_125
*925 FILLER_0_29_137
*926 FILLER_0_29_149
*927 FILLER_0_29_15
*928 FILLER_0_29_161
*929 FILLER_0_29_167
*930 FILLER_0_29_169
*931 FILLER_0_29_181
*932 FILLER_0_29_193
*933 FILLER_0_29_205
*934 FILLER_0_29_217
*935 FILLER_0_29_223
*936 FILLER_0_29_225
*937 FILLER_0_29_237
*938 FILLER_0_29_249
*939 FILLER_0_29_261
*940 FILLER_0_29_27
*941 FILLER_0_29_273
*942 FILLER_0_29_279
*943 FILLER_0_29_281
*944 FILLER_0_29_293
*945 FILLER_0_29_3
*946 FILLER_0_29_305
*947 FILLER_0_29_317
*948 FILLER_0_29_329
*949 FILLER_0_29_335
*950 FILLER_0_29_337
*951 FILLER_0_29_349
*952 FILLER_0_29_361
*953 FILLER_0_29_373
*954 FILLER_0_29_385
*955 FILLER_0_29_39
*956 FILLER_0_29_391
*957 FILLER_0_29_393
*958 FILLER_0_29_405
*959 FILLER_0_29_51
*960 FILLER_0_29_55
*961 FILLER_0_29_57
*962 FILLER_0_29_69
*963 FILLER_0_29_81
*964 FILLER_0_29_93
*965 FILLER_0_2_109
*966 FILLER_0_2_121
*967 FILLER_0_2_133
*968 FILLER_0_2_139
*969 FILLER_0_2_141
*970 FILLER_0_2_15
*971 FILLER_0_2_153
*972 FILLER_0_2_165
*973 FILLER_0_2_177
*974 FILLER_0_2_189
*975 FILLER_0_2_195
*976 FILLER_0_2_197
*977 FILLER_0_2_209
*978 FILLER_0_2_221
*979 FILLER_0_2_233
*980 FILLER_0_2_245
*981 FILLER_0_2_251
*982 FILLER_0_2_253
*983 FILLER_0_2_265
*984 FILLER_0_2_27
*985 FILLER_0_2_277
*986 FILLER_0_2_289
*987 FILLER_0_2_29
*988 FILLER_0_2_3
*989 FILLER_0_2_301
*990 FILLER_0_2_307
*991 FILLER_0_2_309
*992 FILLER_0_2_321
*993 FILLER_0_2_333
*994 FILLER_0_2_345
*995 FILLER_0_2_357
*996 FILLER_0_2_363
*997 FILLER_0_2_365
*998 FILLER_0_2_377
*999 FILLER_0_2_389
*1000 FILLER_0_2_401
*1001 FILLER_0_2_41
*1002 FILLER_0_2_53
*1003 FILLER_0_2_65
*1004 FILLER_0_2_77
*1005 FILLER_0_2_83
*1006 FILLER_0_2_85
*1007 FILLER_0_2_97
*1008 FILLER_0_30_109
*1009 FILLER_0_30_121
*1010 FILLER_0_30_133
*1011 FILLER_0_30_139
*1012 FILLER_0_30_141
*1013 FILLER_0_30_15
*1014 FILLER_0_30_153
*1015 FILLER_0_30_165
*1016 FILLER_0_30_177
*1017 FILLER_0_30_189
*1018 FILLER_0_30_195
*1019 FILLER_0_30_197
*1020 FILLER_0_30_209
*1021 FILLER_0_30_221
*1022 FILLER_0_30_233
*1023 FILLER_0_30_245
*1024 FILLER_0_30_251
*1025 FILLER_0_30_253
*1026 FILLER_0_30_265
*1027 FILLER_0_30_27
*1028 FILLER_0_30_277
*1029 FILLER_0_30_289
*1030 FILLER_0_30_29
*1031 FILLER_0_30_3
*1032 FILLER_0_30_301
*1033 FILLER_0_30_307
*1034 FILLER_0_30_309
*1035 FILLER_0_30_321
*1036 FILLER_0_30_333
*1037 FILLER_0_30_345
*1038 FILLER_0_30_357
*1039 FILLER_0_30_363
*1040 FILLER_0_30_365
*1041 FILLER_0_30_377
*1042 FILLER_0_30_389
*1043 FILLER_0_30_401
*1044 FILLER_0_30_41
*1045 FILLER_0_30_53
*1046 FILLER_0_30_65
*1047 FILLER_0_30_77
*1048 FILLER_0_30_83
*1049 FILLER_0_30_85
*1050 FILLER_0_30_97
*1051 FILLER_0_31_105
*1052 FILLER_0_31_111
*1053 FILLER_0_31_113
*1054 FILLER_0_31_125
*1055 FILLER_0_31_137
*1056 FILLER_0_31_149
*1057 FILLER_0_31_15
*1058 FILLER_0_31_161
*1059 FILLER_0_31_167
*1060 FILLER_0_31_169
*1061 FILLER_0_31_181
*1062 FILLER_0_31_193
*1063 FILLER_0_31_205
*1064 FILLER_0_31_217
*1065 FILLER_0_31_223
*1066 FILLER_0_31_225
*1067 FILLER_0_31_237
*1068 FILLER_0_31_249
*1069 FILLER_0_31_261
*1070 FILLER_0_31_27
*1071 FILLER_0_31_273
*1072 FILLER_0_31_279
*1073 FILLER_0_31_281
*1074 FILLER_0_31_293
*1075 FILLER_0_31_3
*1076 FILLER_0_31_305
*1077 FILLER_0_31_317
*1078 FILLER_0_31_329
*1079 FILLER_0_31_335
*1080 FILLER_0_31_337
*1081 FILLER_0_31_349
*1082 FILLER_0_31_361
*1083 FILLER_0_31_373
*1084 FILLER_0_31_385
*1085 FILLER_0_31_39
*1086 FILLER_0_31_391
*1087 FILLER_0_31_393
*1088 FILLER_0_31_405
*1089 FILLER_0_31_51
*1090 FILLER_0_31_55
*1091 FILLER_0_31_57
*1092 FILLER_0_31_69
*1093 FILLER_0_31_81
*1094 FILLER_0_31_93
*1095 FILLER_0_32_109
*1096 FILLER_0_32_121
*1097 FILLER_0_32_133
*1098 FILLER_0_32_139
*1099 FILLER_0_32_141
*1100 FILLER_0_32_15
*1101 FILLER_0_32_153
*1102 FILLER_0_32_165
*1103 FILLER_0_32_177
*1104 FILLER_0_32_189
*1105 FILLER_0_32_195
*1106 FILLER_0_32_197
*1107 FILLER_0_32_201
*1108 FILLER_0_32_205
*1109 FILLER_0_32_217
*1110 FILLER_0_32_229
*1111 FILLER_0_32_241
*1112 FILLER_0_32_249
*1113 FILLER_0_32_253
*1114 FILLER_0_32_265
*1115 FILLER_0_32_27
*1116 FILLER_0_32_277
*1117 FILLER_0_32_289
*1118 FILLER_0_32_29
*1119 FILLER_0_32_3
*1120 FILLER_0_32_301
*1121 FILLER_0_32_307
*1122 FILLER_0_32_309
*1123 FILLER_0_32_321
*1124 FILLER_0_32_333
*1125 FILLER_0_32_345
*1126 FILLER_0_32_357
*1127 FILLER_0_32_363
*1128 FILLER_0_32_365
*1129 FILLER_0_32_377
*1130 FILLER_0_32_389
*1131 FILLER_0_32_401
*1132 FILLER_0_32_41
*1133 FILLER_0_32_53
*1134 FILLER_0_32_65
*1135 FILLER_0_32_77
*1136 FILLER_0_32_83
*1137 FILLER_0_32_85
*1138 FILLER_0_32_97
*1139 FILLER_0_33_105
*1140 FILLER_0_33_111
*1141 FILLER_0_33_113
*1142 FILLER_0_33_125
*1143 FILLER_0_33_137
*1144 FILLER_0_33_149
*1145 FILLER_0_33_15
*1146 FILLER_0_33_161
*1147 FILLER_0_33_167
*1148 FILLER_0_33_169
*1149 FILLER_0_33_181
*1150 FILLER_0_33_193
*1151 FILLER_0_33_205
*1152 FILLER_0_33_217
*1153 FILLER_0_33_223
*1154 FILLER_0_33_225
*1155 FILLER_0_33_237
*1156 FILLER_0_33_249
*1157 FILLER_0_33_261
*1158 FILLER_0_33_27
*1159 FILLER_0_33_273
*1160 FILLER_0_33_279
*1161 FILLER_0_33_281
*1162 FILLER_0_33_293
*1163 FILLER_0_33_3
*1164 FILLER_0_33_305
*1165 FILLER_0_33_317
*1166 FILLER_0_33_329
*1167 FILLER_0_33_335
*1168 FILLER_0_33_337
*1169 FILLER_0_33_349
*1170 FILLER_0_33_361
*1171 FILLER_0_33_373
*1172 FILLER_0_33_385
*1173 FILLER_0_33_39
*1174 FILLER_0_33_391
*1175 FILLER_0_33_393
*1176 FILLER_0_33_405
*1177 FILLER_0_33_51
*1178 FILLER_0_33_55
*1179 FILLER_0_33_57
*1180 FILLER_0_33_69
*1181 FILLER_0_33_81
*1182 FILLER_0_33_93
*1183 FILLER_0_34_109
*1184 FILLER_0_34_121
*1185 FILLER_0_34_133
*1186 FILLER_0_34_139
*1187 FILLER_0_34_141
*1188 FILLER_0_34_15
*1189 FILLER_0_34_153
*1190 FILLER_0_34_165
*1191 FILLER_0_34_177
*1192 FILLER_0_34_189
*1193 FILLER_0_34_195
*1194 FILLER_0_34_197
*1195 FILLER_0_34_209
*1196 FILLER_0_34_221
*1197 FILLER_0_34_233
*1198 FILLER_0_34_245
*1199 FILLER_0_34_251
*1200 FILLER_0_34_253
*1201 FILLER_0_34_265
*1202 FILLER_0_34_27
*1203 FILLER_0_34_277
*1204 FILLER_0_34_289
*1205 FILLER_0_34_29
*1206 FILLER_0_34_3
*1207 FILLER_0_34_301
*1208 FILLER_0_34_307
*1209 FILLER_0_34_309
*1210 FILLER_0_34_321
*1211 FILLER_0_34_333
*1212 FILLER_0_34_345
*1213 FILLER_0_34_357
*1214 FILLER_0_34_363
*1215 FILLER_0_34_365
*1216 FILLER_0_34_377
*1217 FILLER_0_34_389
*1218 FILLER_0_34_401
*1219 FILLER_0_34_41
*1220 FILLER_0_34_53
*1221 FILLER_0_34_65
*1222 FILLER_0_34_77
*1223 FILLER_0_34_83
*1224 FILLER_0_34_85
*1225 FILLER_0_34_97
*1226 FILLER_0_35_105
*1227 FILLER_0_35_111
*1228 FILLER_0_35_113
*1229 FILLER_0_35_125
*1230 FILLER_0_35_137
*1231 FILLER_0_35_149
*1232 FILLER_0_35_15
*1233 FILLER_0_35_161
*1234 FILLER_0_35_167
*1235 FILLER_0_35_169
*1236 FILLER_0_35_181
*1237 FILLER_0_35_193
*1238 FILLER_0_35_205
*1239 FILLER_0_35_217
*1240 FILLER_0_35_223
*1241 FILLER_0_35_225
*1242 FILLER_0_35_237
*1243 FILLER_0_35_249
*1244 FILLER_0_35_261
*1245 FILLER_0_35_27
*1246 FILLER_0_35_273
*1247 FILLER_0_35_279
*1248 FILLER_0_35_281
*1249 FILLER_0_35_293
*1250 FILLER_0_35_3
*1251 FILLER_0_35_305
*1252 FILLER_0_35_317
*1253 FILLER_0_35_329
*1254 FILLER_0_35_335
*1255 FILLER_0_35_337
*1256 FILLER_0_35_349
*1257 FILLER_0_35_361
*1258 FILLER_0_35_373
*1259 FILLER_0_35_385
*1260 FILLER_0_35_39
*1261 FILLER_0_35_391
*1262 FILLER_0_35_393
*1263 FILLER_0_35_405
*1264 FILLER_0_35_51
*1265 FILLER_0_35_55
*1266 FILLER_0_35_57
*1267 FILLER_0_35_69
*1268 FILLER_0_35_81
*1269 FILLER_0_35_93
*1270 FILLER_0_36_109
*1271 FILLER_0_36_121
*1272 FILLER_0_36_133
*1273 FILLER_0_36_139
*1274 FILLER_0_36_141
*1275 FILLER_0_36_15
*1276 FILLER_0_36_153
*1277 FILLER_0_36_165
*1278 FILLER_0_36_177
*1279 FILLER_0_36_189
*1280 FILLER_0_36_195
*1281 FILLER_0_36_197
*1282 FILLER_0_36_209
*1283 FILLER_0_36_221
*1284 FILLER_0_36_233
*1285 FILLER_0_36_245
*1286 FILLER_0_36_251
*1287 FILLER_0_36_253
*1288 FILLER_0_36_265
*1289 FILLER_0_36_27
*1290 FILLER_0_36_277
*1291 FILLER_0_36_289
*1292 FILLER_0_36_29
*1293 FILLER_0_36_3
*1294 FILLER_0_36_301
*1295 FILLER_0_36_307
*1296 FILLER_0_36_309
*1297 FILLER_0_36_321
*1298 FILLER_0_36_333
*1299 FILLER_0_36_345
*1300 FILLER_0_36_357
*1301 FILLER_0_36_363
*1302 FILLER_0_36_365
*1303 FILLER_0_36_377
*1304 FILLER_0_36_389
*1305 FILLER_0_36_401
*1306 FILLER_0_36_41
*1307 FILLER_0_36_53
*1308 FILLER_0_36_65
*1309 FILLER_0_36_77
*1310 FILLER_0_36_83
*1311 FILLER_0_36_85
*1312 FILLER_0_36_97
*1313 FILLER_0_37_105
*1314 FILLER_0_37_111
*1315 FILLER_0_37_113
*1316 FILLER_0_37_125
*1317 FILLER_0_37_137
*1318 FILLER_0_37_149
*1319 FILLER_0_37_15
*1320 FILLER_0_37_161
*1321 FILLER_0_37_167
*1322 FILLER_0_37_169
*1323 FILLER_0_37_181
*1324 FILLER_0_37_193
*1325 FILLER_0_37_205
*1326 FILLER_0_37_217
*1327 FILLER_0_37_223
*1328 FILLER_0_37_225
*1329 FILLER_0_37_237
*1330 FILLER_0_37_249
*1331 FILLER_0_37_261
*1332 FILLER_0_37_27
*1333 FILLER_0_37_273
*1334 FILLER_0_37_279
*1335 FILLER_0_37_281
*1336 FILLER_0_37_293
*1337 FILLER_0_37_3
*1338 FILLER_0_37_305
*1339 FILLER_0_37_317
*1340 FILLER_0_37_329
*1341 FILLER_0_37_335
*1342 FILLER_0_37_337
*1343 FILLER_0_37_349
*1344 FILLER_0_37_361
*1345 FILLER_0_37_373
*1346 FILLER_0_37_385
*1347 FILLER_0_37_39
*1348 FILLER_0_37_391
*1349 FILLER_0_37_393
*1350 FILLER_0_37_405
*1351 FILLER_0_37_51
*1352 FILLER_0_37_55
*1353 FILLER_0_37_57
*1354 FILLER_0_37_69
*1355 FILLER_0_37_81
*1356 FILLER_0_37_93
*1357 FILLER_0_38_109
*1358 FILLER_0_38_121
*1359 FILLER_0_38_133
*1360 FILLER_0_38_139
*1361 FILLER_0_38_141
*1362 FILLER_0_38_15
*1363 FILLER_0_38_153
*1364 FILLER_0_38_165
*1365 FILLER_0_38_177
*1366 FILLER_0_38_189
*1367 FILLER_0_38_195
*1368 FILLER_0_38_197
*1369 FILLER_0_38_209
*1370 FILLER_0_38_221
*1371 FILLER_0_38_233
*1372 FILLER_0_38_245
*1373 FILLER_0_38_251
*1374 FILLER_0_38_253
*1375 FILLER_0_38_265
*1376 FILLER_0_38_27
*1377 FILLER_0_38_277
*1378 FILLER_0_38_289
*1379 FILLER_0_38_29
*1380 FILLER_0_38_3
*1381 FILLER_0_38_301
*1382 FILLER_0_38_307
*1383 FILLER_0_38_309
*1384 FILLER_0_38_321
*1385 FILLER_0_38_333
*1386 FILLER_0_38_345
*1387 FILLER_0_38_357
*1388 FILLER_0_38_363
*1389 FILLER_0_38_365
*1390 FILLER_0_38_377
*1391 FILLER_0_38_389
*1392 FILLER_0_38_401
*1393 FILLER_0_38_41
*1394 FILLER_0_38_53
*1395 FILLER_0_38_65
*1396 FILLER_0_38_77
*1397 FILLER_0_38_83
*1398 FILLER_0_38_85
*1399 FILLER_0_38_97
*1400 FILLER_0_39_105
*1401 FILLER_0_39_111
*1402 FILLER_0_39_113
*1403 FILLER_0_39_125
*1404 FILLER_0_39_137
*1405 FILLER_0_39_149
*1406 FILLER_0_39_15
*1407 FILLER_0_39_161
*1408 FILLER_0_39_167
*1409 FILLER_0_39_169
*1410 FILLER_0_39_181
*1411 FILLER_0_39_193
*1412 FILLER_0_39_205
*1413 FILLER_0_39_217
*1414 FILLER_0_39_223
*1415 FILLER_0_39_225
*1416 FILLER_0_39_237
*1417 FILLER_0_39_249
*1418 FILLER_0_39_261
*1419 FILLER_0_39_27
*1420 FILLER_0_39_273
*1421 FILLER_0_39_279
*1422 FILLER_0_39_281
*1423 FILLER_0_39_293
*1424 FILLER_0_39_3
*1425 FILLER_0_39_305
*1426 FILLER_0_39_317
*1427 FILLER_0_39_329